LAMMPS (31 Mar 2017)
# TraPPE Carbon Dioxide NVT

#NOTES:
# The variable "infile" is read from the command line argument:
#  E.G., "lmp_serial -in foo -var infile bar1 -var temp bar2
#  foo = input filename
#  bar1 = input value for variable infile (Input configuration and molecular topology)
#  bar2 = put value for variable temp (temperature, in Kelvin units)
# The input file specifies the following:
#   System volume, conformation, atom types, bond types, angles types
#   Initial configuration
#   The molecular topology
# The configuration in the restart file is not assumed to be a relaxed configuration

units		real	                             #Angstroms, g/mol, etc.
atom_style	full                                 #Molecule + charge

#timestep	2.0				     #Set the integrator time step (default = 1.0fs for real units)

boundary        p p p				     #Periodic Boundaries
read_data       TraPPECO2_N1000_config.dens_18.0molL.cfg.lammps
  orthogonal box = (0 0 0) to (45.1848 45.1848 45.1848)
  reading atoms ...
  3000 atoms
  scanning bonds ...
  scanning angles ...
  reading bonds ...
  2000 bonds
  reading angles ...
  1000 angles

replicate	1 1 1				     #cell replication (none = 1 1 1)
  orthogonal box = (0 0 0) to (45.1848 45.1848 45.1848)
  3000 atoms
  2000 bonds
  1000 angles

variable        dt equal dt
variable        ext_temp equal 300.0
variable        Tdamp equal 100.0*1
		      	    			     #(e.g. 50fs if time step is 0.5fs)

pair_style	lj/cut/coul/long 15.0 15.0           #LJ with 15.0ang cutoff, Coulomb with 15.0ang cutoff
pair_modify     tail yes			     #Analytic Long-range Tail corrections, for the LJ interactions
bond_style      harmonic
angle_style     harmonic
kspace_style	pppm 1.0e-4                          #PPPM Ewald, relative error in forces
#kspace_style	ewald 1.0e-4                         #Conventional Ewald method , relative error in forces = 1.0e-04
                                                     #kspace uses tinfoil/conducting boundary conditions by default
						     #NOTE: This script lets LAMMPS set the Ewald damping parameter
						     # and number of k-vectors automatically.
group           carbon type 1
1000 atoms in group carbon
group           oxygen type 2
2000 atoms in group oxygen

pair_coeff      1 1 0.053654828567 2.8000            #Carbon-Carbon LJ (dispersion) parameters
pair_coeff	2 2 0.156990053954 3.05000           #Oxygen-Oxygen LJ (dispersion) parameters
pair_coeff	1 2 0.091778398502 2.9250            #Carbon-Oxygen LJ (dispersion) parameters [Lorentz-Berthelot Mixing Rule]

bond_style	harmonic   			     #Sets the bond type as harmonic
angle_style	harmonic			     #Sets the triplet bond type as harmonic
dihedral_style	none				     #TraPPE CO2 has no dihedrals (quadruplets)
improper_style	none				     #TraPPE CO2 has no improper quadruplets

bond_coeff	1 5000.00 1.160                      #Oxygen-Carbon bond parameters (1.160~ang)
angle_coeff	1 500.0 180.00			     #Oxygen-Carbon-Oxygen angle parameters (angle=180.0deg)
		  				     #NOTE: harmonic moduli do not matter, since the rigid bonds are preserved by rigid fix

#Neighbor List Parameters
#neighbor        2.0 bin			     #Skin (default = 2.0 bin for real units)
#neigh_modify    delay 1 every 1 check no
                                                     #  delay N =  never delay until at least N steps after previous build
                                                     #  every N =  build list every N steps
                                                     #  check no = build whenever delay/every criteria are met
                                                     #  check yes = build whenever delay/every criteria are met and atom moved > skin/2

#Create initial velocity distribution
velocity all create 300 432567 dist uniform
		      	    	      	      	     #Set uniform distribution with T = {ext_temp}
		      	    	      	      	     #Seed integer = 432567
						     #dist uniform is the LAMMPS Default

#Reset the time step counter
reset_timestep  0                                    #Reset the time step counter to 0

#Ensemble set-up: NVT ensemble, thermostatted by Nose-Hoover a chained thermostat, set at temperature $ext_temp
fix             2 all rigid/nvt molecule temp 300 300 100
1000 rigid bodies with 3000 atoms
		      	       		   	     #start temperature = ext_temp
		      	       		   	     #end temperature = ext_temp
		      	    	      	      	     #Tdamp (in time units, fs)

#Output Style
variable        Nevery equal 20                      #Specify the distance (in timesteps) between samples for computing ensemble aver$
                                                     #  (Interval between samples in a block)
variable        Nrepeat equal 50                     #Specify the number of samples per output  of thermodynamic averages
                                                     #  (Samples per block output)
variable        Nfreq equal 20*50
                                                     #  (Some people call these blocks)
variable        PotentialEnergy equal epair          #Call the intermolecular potential energy $PotentialEnergy
variable        Pressure equal press                 #Call the pressure $Pressure
variable        Temperature equal temp               #Call the instantaneous temperature $Temperature
variable        Density equal density                #Call the instantaneous density $Density (will not change for NVT)

fix             3 all ave/time 20 50 1000 v_Temperature v_Density v_PotentialEnergy v_Pressure file dens_18.0molL format %.8g
thermo          1000                                 #Specify the interval between screen output of thermodynamic averages
#thermo  100
thermo_style    custom step temp density epair press #Format for screen output of thermodynamics
                                                     #  (MD step, temperature, internal energy, pressure)
#Run it!
run		60000
PPPM initialization ...
  G vector (1/distance) = 0.173731
  grid = 15 15 15
  stencil order = 5
  estimated absolute RMS force accuracy = 0.0120402
  estimated relative force accuracy = 3.62588e-05
  3d grid and FFT values/proc = 2197 512
  update every 1 steps, delay 10 steps, check yes
Step Temp Density E_pair Press
0    298.96586     0.792189   -1524.6068    59.101893
Averages over the last 31 of 61 rows, steps 30000 to 60000:
Temp Density E_pair Press
300.363 0.792189 -2151.74 66.9656
Loop time of 314.483 on 8 procs for 60000 steps with 3000 atoms
